Circuit: * U:\Documents\LTspice\Draft2.asc

Direct Newton iteration for .op point succeeded.

Date: Wed Feb 15 12:06:27 2023
Total elapsed time: 0.110 seconds.

tnom = 27
temp = 27
method = trap
totiter = 22
traniter = 0
tranpoints = 0
accept = 0
rejected = 0
matrix size = 11
fillins = 5
solver = Normal
Matrix Compiler1:      32 opcodes
Matrix Compiler2: 965 bytes object code size
